examples/test_perturbation_outputs/pert_min_loss/pglib_opf_case73_ieee_rts.m
%% MATPOWER Case Format : Version 2
function mpc = pglib_opf_case73_ieee_rts
mpc.version = '2';

%%-----  Power Flow Data  -----%%
%% system MVA base
mpc.baseMVA = 100.0;
%% bus data
%    bus_i    type    Pd    Qd    Gs    Bs    area    Vm    Va    baseKV    zone    Vmax    Vmin
mpc.bus = [
	101	2	108.0	22.0	0.0	0.0	1	1.0	0.0	138.0	1	1.05	0.95				
	102	2	97.0	20.0	0.0	0.0	1	1.0	0.0	138.0	1	1.05	0.95				
	103	1	180.0	37.0	0.0	0.0	1	1.0	0.0	138.0	1	1.05	0.95				
	104	1	74.0	15.0	0.0	0.0	1	1.0	0.0	138.0	1	1.05	0.95				
	105	1	71.0	14.000000000000002	0.0	0.0	1	1.0	0.0	138.0	1	1.05	0.95				
	106	1	136.0	28.000000000000004	0.0	-100.0	1	1.0	0.0	138.0	1	1.05	0.95				
	107	2	125.0	25.0	0.0	0.0	1	1.0	0.0	138.0	1	1.05	0.95				
	108	1	171.0	35.0	0.0	0.0	1	1.0	0.0	138.0	1	1.05	0.95				
	109	1	175.0	36.0	0.0	0.0	1	1.0	0.0	138.0	1	1.05	0.95				
	110	1	195.0	40.0	0.0	0.0	1	1.0	0.0	138.0	1	1.05	0.95				
	111	1	0.0	0.0	0.0	0.0	1	1.0	0.0	230.0	1	1.05	0.95				
	112	1	0.0	0.0	0.0	0.0	1	1.0	0.0	230.0	1	1.05	0.95				
	113	3	265.0	54.0	0.0	0.0	1	1.0	0.0	230.0	1	1.05	0.95				
	114	2	194.0	39.0	0.0	0.0	1	1.0	0.0	230.0	1	1.05	0.95				
	115	2	317.0	64.0	0.0	0.0	1	1.0	0.0	230.0	1	1.05	0.95				
	116	2	100.0	20.0	0.0	0.0	1	1.0	0.0	230.0	1	1.05	0.95				
	117	1	0.0	0.0	0.0	0.0	1	1.0	0.0	230.0	1	1.05	0.95				
	118	2	333.0	68.0	0.0	0.0	1	1.0	0.0	230.0	1	1.05	0.95				
	119	1	181.0	37.0	0.0	0.0	1	1.0	0.0	230.0	1	1.05	0.95				
	120	1	128.0	26.0	0.0	0.0	1	1.0	0.0	230.0	1	1.05	0.95				
	121	2	0.0	0.0	0.0	0.0	1	1.0	0.0	230.0	1	1.05	0.95				
	122	2	0.0	0.0	0.0	0.0	1	1.0	0.0	230.0	1	1.05	0.95				
	123	2	0.0	0.0	0.0	0.0	1	1.0	0.0	230.0	1	1.05	0.95				
	124	1	0.0	0.0	0.0	0.0	1	1.0	0.0	230.0	1	1.05	0.95				
	201	2	108.0	22.0	0.0	0.0	2	1.0	0.0	138.0	2	1.05	0.95				
	202	2	97.0	20.0	0.0	0.0	2	1.0	0.0	138.0	2	1.05	0.95				
	203	1	180.0	37.0	0.0	0.0	2	1.0	0.0	138.0	2	1.05	0.95				
	204	1	74.0	15.0	0.0	0.0	2	1.0	0.0	138.0	2	1.05	0.95				
	205	1	71.0	14.000000000000002	0.0	0.0	2	1.0	0.0	138.0	2	1.05	0.95				
	206	1	136.0	28.000000000000004	0.0	-100.0	2	1.0	0.0	138.0	2	1.05	0.95				
	207	2	125.0	25.0	0.0	0.0	2	1.0	0.0	138.0	2	1.05	0.95				
	208	1	171.0	35.0	0.0	0.0	2	1.0	0.0	138.0	2	1.05	0.95				
	209	1	175.0	36.0	0.0	0.0	2	1.0	0.0	138.0	2	1.05	0.95				
	210	1	195.0	40.0	0.0	0.0	2	1.0	0.0	138.0	2	1.05	0.95				
	211	1	0.0	0.0	0.0	0.0	2	1.0	0.0	230.0	2	1.05	0.95				
	212	1	0.0	0.0	0.0	0.0	2	1.0	0.0	230.0	2	1.05	0.95				
	213	2	265.0	54.0	0.0	0.0	2	1.0	0.0	230.0	2	1.05	0.95				
	214	2	194.0	39.0	0.0	0.0	2	1.0	0.0	230.0	2	1.05	0.95				
	215	2	317.0	64.0	0.0	0.0	2	1.0	0.0	230.0	2	1.05	0.95				
	216	2	100.0	20.0	0.0	0.0	2	1.0	0.0	230.0	2	1.05	0.95				
	217	1	0.0	0.0	0.0	0.0	2	1.0	0.0	230.0	2	1.05	0.95				
	218	2	333.0	68.0	0.0	0.0	2	1.0	0.0	230.0	2	1.05	0.95				
	219	1	181.0	37.0	0.0	0.0	2	1.0	0.0	230.0	2	1.05	0.95				
	220	1	128.0	26.0	0.0	0.0	2	1.0	0.0	230.0	2	1.05	0.95				
	221	2	0.0	0.0	0.0	0.0	2	1.0	0.0	230.0	2	1.05	0.95				
	222	2	0.0	0.0	0.0	0.0	2	1.0	0.0	230.0	2	1.05	0.95				
	223	2	0.0	0.0	0.0	0.0	2	1.0	0.0	230.0	2	1.05	0.95				
	224	1	0.0	0.0	0.0	0.0	2	1.0	0.0	230.0	2	1.05	0.95				
	301	2	108.0	22.0	0.0	0.0	3	1.0	0.0	138.0	3	1.05	0.95				
	302	2	97.0	20.0	0.0	0.0	3	1.0	0.0	138.0	3	1.05	0.95				
	303	1	180.0	37.0	0.0	0.0	3	1.0	0.0	138.0	3	1.05	0.95				
	304	1	74.0	15.0	0.0	0.0	3	1.0	0.0	138.0	3	1.05	0.95				
	305	1	71.0	14.000000000000002	0.0	0.0	3	1.0	0.0	138.0	3	1.05	0.95				
	306	1	136.0	28.000000000000004	0.0	-100.0	3	1.0	0.0	138.0	3	1.05	0.95				
	307	2	125.0	25.0	0.0	0.0	3	1.0	0.0	138.0	3	1.05	0.95				
	308	1	171.0	35.0	0.0	0.0	3	1.0	0.0	138.0	3	1.05	0.95				
	309	1	175.0	36.0	0.0	0.0	3	1.0	0.0	138.0	3	1.05	0.95				
	310	1	195.0	40.0	0.0	0.0	3	1.0	0.0	138.0	3	1.05	0.95				
	311	1	0.0	0.0	0.0	0.0	3	1.0	0.0	230.0	3	1.05	0.95				
	312	1	0.0	0.0	0.0	0.0	3	1.0	0.0	230.0	3	1.05	0.95				
	313	2	265.0	54.0	0.0	0.0	3	1.0	0.0	230.0	3	1.05	0.95				
	314	2	194.0	39.0	0.0	0.0	3	1.0	0.0	230.0	3	1.05	0.95				
	315	2	317.0	64.0	0.0	0.0	3	1.0	0.0	230.0	3	1.05	0.95				
	316	2	100.0	20.0	0.0	0.0	3	1.0	0.0	230.0	3	1.05	0.95				
	317	1	0.0	0.0	0.0	0.0	3	1.0	0.0	230.0	3	1.05	0.95				
	318	2	333.0	68.0	0.0	0.0	3	1.0	0.0	230.0	3	1.05	0.95				
	319	1	181.0	37.0	0.0	0.0	3	1.0	0.0	230.0	3	1.05	0.95				
	320	1	128.0	26.0	0.0	0.0	3	1.0	0.0	230.0	3	1.05	0.95				
	321	2	0.0	0.0	0.0	0.0	3	1.0	0.0	230.0	3	1.05	0.95				
	322	2	0.0	0.0	0.0	0.0	3	1.0	0.0	230.0	3	1.05	0.95				
	323	2	0.0	0.0	0.0	0.0	3	1.0	0.0	230.0	3	1.05	0.95				
	324	1	0.0	0.0	0.0	0.0	3	1.0	0.0	230.0	3	1.05	0.95				
	325	1	0.0	0.0	0.0	0.0	3	1.0	0.0	230.0	3	1.05	0.95				
];

%% generator data
%    bus    Pg    Qg    Qmax    Qmin    Vg    mBase    status    Pmax    Pmin    Pc1    Pc2    Qc1min    Qc1max    Qc2min    Qc2max    ramp_agc    ramp_10    ramp_30    ramp_q    apf
mpc.gen = [
	101	18.0	5.0	10.0	0.0	1.0	100.0	1	20.0	16.0															
	101	18.0	5.0	10.0	0.0	1.0	100.0	1	20.0	16.0															
	101	45.6	2.5	30.0	-25.0	1.0	100.0	1	76.0	15.2															
	101	45.6	2.5	30.0	-25.0	1.0	100.0	1	76.0	15.2															
	102	18.0	5.0	10.0	0.0	1.0	100.0	1	20.0	16.0															
	102	18.0	5.0	10.0	0.0	1.0	100.0	1	20.0	16.0															
	102	45.6	2.5	30.0	-25.0	1.0	100.0	1	76.0	15.2															
	102	45.6	2.5	30.0	-25.0	1.0	100.0	1	76.0	15.2															
	107	62.5	30.0	60.0	0.0	1.0	100.0	1	100.0	25.0															
	107	62.5	30.0	60.0	0.0	1.0	100.0	1	100.0	25.0															
	107	62.5	30.0	60.0	0.0	1.0	100.0	1	100.0	25.0															
	113	133.0	40.0	80.0	0.0	1.0	100.0	1	197.0	69.0															
	113	133.0	40.0	80.0	0.0	1.0	100.0	1	197.0	69.0															
	113	133.0	40.0	80.0	0.0	1.0	100.0	1	197.0	69.0															
	114	0.0	75.0	200.0	-50.0	1.0	100.0	1	0.0	0.0															
	115	7.200000000000001	3.0	6.0	0.0	1.0	100.0	1	12.0	2.4															
	115	7.200000000000001	3.0	6.0	0.0	1.0	100.0	1	12.0	2.4															
	115	7.200000000000001	3.0	6.0	0.0	1.0	100.0	1	12.0	2.4															
	115	7.200000000000001	3.0	6.0	0.0	1.0	100.0	1	12.0	2.4															
	115	7.200000000000001	3.0	6.0	0.0	1.0	100.0	1	12.0	2.4															
	115	104.65	15.0	80.0	-50.0	1.0	100.0	1	155.0	54.29999999999999															
	116	104.65	15.0	80.0	-50.0	1.0	100.0	1	155.0	54.29999999999999															
	118	250.0	75.0	200.0	-50.0	1.0	100.0	1	400.0	100.0															
	121	250.0	75.0	200.0	-50.0	1.0	100.0	1	400.0	100.0															
	122	30.0	3.0	16.0	-10.0	1.0	100.0	1	50.0	10.0															
	122	30.0	3.0	16.0	-10.0	1.0	100.0	1	50.0	10.0															
	122	30.0	3.0	16.0	-10.0	1.0	100.0	1	50.0	10.0															
	122	30.0	3.0	16.0	-10.0	1.0	100.0	1	50.0	10.0															
	122	30.0	3.0	16.0	-10.0	1.0	100.0	1	50.0	10.0															
	122	30.0	3.0	16.0	-10.0	1.0	100.0	1	50.0	10.0															
	123	104.65	15.0	80.0	-50.0	1.0	100.0	1	155.0	54.29999999999999															
	123	104.65	15.0	80.0	-50.0	1.0	100.0	1	155.0	54.29999999999999															
	123	245.00000000000003	62.5	150.0	-25.0	1.0	100.0	1	350.0	140.0															
	201	18.0	5.0	10.0	0.0	1.0	100.0	1	20.0	16.0															
	201	18.0	5.0	10.0	0.0	1.0	100.0	1	20.0	16.0															
	201	45.6	2.5	30.0	-25.0	1.0	100.0	1	76.0	15.2															
	201	45.6	2.5	30.0	-25.0	1.0	100.0	1	76.0	15.2															
	202	18.0	5.0	10.0	0.0	1.0	100.0	1	20.0	16.0															
	202	18.0	5.0	10.0	0.0	1.0	100.0	1	20.0	16.0															
	202	45.6	2.5	30.0	-25.0	1.0	100.0	1	76.0	15.2															
	202	45.6	2.5	30.0	-25.0	1.0	100.0	1	76.0	15.2															
	207	62.5	30.0	60.0	0.0	1.0	100.0	1	100.0	25.0															
	207	62.5	30.0	60.0	0.0	1.0	100.0	1	100.0	25.0															
	207	62.5	30.0	60.0	0.0	1.0	100.0	1	100.0	25.0															
	213	133.0	40.0	80.0	0.0	1.0	100.0	1	197.0	69.0															
	213	133.0	40.0	80.0	0.0	1.0	100.0	1	197.0	69.0															
	213	133.0	40.0	80.0	0.0	1.0	100.0	1	197.0	69.0															
	214	0.0	75.0	200.0	-50.0	1.0	100.0	1	0.0	0.0															
	215	7.200000000000001	3.0	6.0	0.0	1.0	100.0	1	12.0	2.4															
	215	7.200000000000001	3.0	6.0	0.0	1.0	100.0	1	12.0	2.4															
	215	7.200000000000001	3.0	6.0	0.0	1.0	100.0	1	12.0	2.4															
	215	7.200000000000001	3.0	6.0	0.0	1.0	100.0	1	12.0	2.4															
	215	7.200000000000001	3.0	6.0	0.0	1.0	100.0	1	12.0	2.4															
	215	104.65	15.0	80.0	-50.0	1.0	100.0	1	155.0	54.29999999999999															
	216	104.65	15.0	80.0	-50.0	1.0	100.0	1	155.0	54.29999999999999															
	218	250.0	75.0	200.0	-50.0	1.0	100.0	1	400.0	100.0															
	221	250.0	75.0	200.0	-50.0	1.0	100.0	1	400.0	100.0															
	222	30.0	3.0	16.0	-10.0	1.0	100.0	1	50.0	10.0															
	222	30.0	3.0	16.0	-10.0	1.0	100.0	1	50.0	10.0															
	222	30.0	3.0	16.0	-10.0	1.0	100.0	1	50.0	10.0															
	222	30.0	3.0	16.0	-10.0	1.0	100.0	1	50.0	10.0															
	222	30.0	3.0	16.0	-10.0	1.0	100.0	1	50.0	10.0															
	222	30.0	3.0	16.0	-10.0	1.0	100.0	1	50.0	10.0															
	223	104.65	15.0	80.0	-50.0	1.0	100.0	1	155.0	54.29999999999999															
	223	104.65	15.0	80.0	-50.0	1.0	100.0	1	155.0	54.29999999999999															
	223	245.00000000000003	62.5	150.0	-25.0	1.0	100.0	1	350.0	140.0															
	301	18.0	5.0	10.0	0.0	1.0	100.0	1	20.0	16.0															
	301	18.0	5.0	10.0	0.0	1.0	100.0	1	20.0	16.0															
	301	45.6	2.5	30.0	-25.0	1.0	100.0	1	76.0	15.2															
	301	45.6	2.5	30.0	-25.0	1.0	100.0	1	76.0	15.2															
	302	18.0	5.0	10.0	0.0	1.0	100.0	1	20.0	16.0															
	302	18.0	5.0	10.0	0.0	1.0	100.0	1	20.0	16.0															
	302	45.6	2.5	30.0	-25.0	1.0	100.0	1	76.0	15.2															
	302	45.6	2.5	30.0	-25.0	1.0	100.0	1	76.0	15.2															
	307	62.5	30.0	60.0	0.0	1.0	100.0	1	100.0	25.0															
	307	62.5	30.0	60.0	0.0	1.0	100.0	1	100.0	25.0															
	307	62.5	30.0	60.0	0.0	1.0	100.0	1	100.0	25.0															
	313	133.0	40.0	80.0	0.0	1.0	100.0	1	197.0	69.0															
	313	133.0	40.0	80.0	0.0	1.0	100.0	1	197.0	69.0															
	313	133.0	40.0	80.0	0.0	1.0	100.0	1	197.0	69.0															
	314	0.0	75.0	200.0	-50.0	1.0	100.0	1	0.0	0.0															
	315	7.200000000000001	3.0	6.0	0.0	1.0	100.0	1	12.0	2.4															
	315	7.200000000000001	3.0	6.0	0.0	1.0	100.0	1	12.0	2.4															
	315	7.200000000000001	3.0	6.0	0.0	1.0	100.0	1	12.0	2.4															
	315	7.200000000000001	3.0	6.0	0.0	1.0	100.0	1	12.0	2.4															
	315	7.200000000000001	3.0	6.0	0.0	1.0	100.0	1	12.0	2.4															
	315	104.65	15.0	80.0	-50.0	1.0	100.0	1	155.0	54.29999999999999															
	316	104.65	15.0	80.0	-50.0	1.0	100.0	1	155.0	54.29999999999999															
	318	250.0	75.0	200.0	-50.0	1.0	100.0	1	400.0	100.0															
	321	250.0	75.0	200.0	-50.0	1.0	100.0	1	400.0	100.0															
	322	30.0	3.0	16.0	-10.0	1.0	100.0	1	50.0	10.0															
	322	30.0	3.0	16.0	-10.0	1.0	100.0	1	50.0	10.0															
	322	30.0	3.0	16.0	-10.0	1.0	100.0	1	50.0	10.0															
	322	30.0	3.0	16.0	-10.0	1.0	100.0	1	50.0	10.0															
	322	30.0	3.0	16.0	-10.0	1.0	100.0	1	50.0	10.0															
	322	30.0	3.0	16.0	-10.0	1.0	100.0	1	50.0	10.0															
	323	104.65	15.0	80.0	-50.0	1.0	100.0	1	155.0	54.29999999999999															
	323	104.65	15.0	80.0	-50.0	1.0	100.0	1	155.0	54.29999999999999															
	323	245.00000000000003	62.5	150.0	-25.0	1.0	100.0	1	350.0	140.0															
];

%% branch data
%    f_bus    t_bus    r    x    b    rateA    rateB    rateC    ratio    angle    status    angmin    angmax
mpc.branch = [
	101	102	0.0029979747033157685	0.013990548615318923	0.5546051963487942	175.0	193.0	200.0	0	0	1	-29.999999999999996	29.999999999999996								
	101	103	0.05463435351873015	0.20959724669725252	0.11585197631618652	175.0	208.0	220.00000000000003	0	0	1	-29.999999999999996	29.999999999999996								
	101	105	0.022646132159582652	0.08749641967871563	0.04041130893772926	175.0	208.0	220.00000000000003	0	0	1	-29.999999999999996	29.999999999999996								
	102	104	0.032699208624153625	0.12584240887387713	0.03719032394200042	175.0	208.0	220.00000000000003	0	0	1	-29.999999999999996	29.999999999999996								
	102	106	0.05242209939766467	0.2013008613621553	0.07876394203686701	175.0	208.0	220.00000000000003	0	0	1	-29.999999999999996	29.999999999999996								
	103	109	0.029777054038292047	0.11430546543534643	0.059761144100933174	175.0	208.0	220.00000000000003	0	0	1	-29.999999999999996	29.999999999999996								
	103	124	0.001992174444136918	0.0836713232020348	0.05043234844340627	400.0	509.99999999999994	600.0	1.015	0.0	1	-29.999999999999996	29.999999999999996								
	104	109	0.025992165469282645	0.10011797065562157	0.0026877506642072673	175.0	208.0	220.00000000000003	0	0	1	-29.999999999999996	29.999999999999996								
	105	110	0.02311116681328896	0.08842533386357018	0.002688539783032033	175.0	208.0	220.00000000000003	0	0	1	-29.999999999999996	29.999999999999996								
	106	110	0.014000253072376689	0.061001102659221824	2.567847474840582	175.0	193.0	200.0	0	0	1	-29.999999999999996	29.999999999999996								
	107	108	0.01598085903531605	0.060927025065812095	0.02249643212820803	175.0	208.0	220.00000000000003	0	0	1	-29.999999999999996	29.999999999999996								
	107	203	0.04335484317419335	0.16619356527673734	0.00819326507523054	175.0	208.0	220.00000000000003	0	0	1	-29.999999999999996	29.999999999999996								
	108	109	0.04333800841470732	0.16629700883130397	0.029795659327973668	175.0	208.0	220.00000000000003	0	0	1	-29.999999999999996	29.999999999999996								
	108	110	0.04144706201575733	0.15904105174668287	0.03908686579877524	175.0	208.0	220.00000000000003	0	0	1	-29.999999999999996	29.999999999999996								
	109	111	0.0019698109830891975	0.08273205791144612	0.0026877214208283298	400.0	509.99999999999994	600.0	1.03	0.0	1	-29.999999999999996	29.999999999999996								
	109	112	0.002094146107815201	0.08795413250396975	0.11568785831542736	400.0	509.99999999999994	600.0	1.03	0.0	1	-29.999999999999996	29.999999999999996								
	110	111	0.0019390684693583145	0.08144087229887761	0.0860978941737957	400.0	509.99999999999994	600.0	1.015	0.0	1	-29.999999999999996	29.999999999999996								
	110	112	0.0036828439428226484	0.15467941553257647	0.00268770719154087	400.0	509.99999999999994	600.0	1.015	0.0	1	-29.999999999999996	29.999999999999996								
	111	113	0.005926558568593662	0.04741246853525846	0.10431459229305329	500.0	600.0	625.0	0	0	1	-29.999999999999996	29.999999999999996								
	111	114	0.005024346358447947	0.042204509396030675	0.1155308013920586	500.0	600.0	625.0	0	0	1	-29.999999999999996	29.999999999999996								
	112	113	0.006042957973984434	0.04834366377368757	0.18089143904634633	500.0	600.0	625.0	0	0	1	-29.999999999999996	29.999999999999996								
	112	123	0.01231153650110496	0.0995182532552528	0.0026875383865132448	500.0	600.0	625.0	0	0	1	-29.999999999999996	29.999999999999996								
	113	123	0.010989126682046511	0.08691400183516072	0.21226787800147942	500.0	600.0	625.0	0	0	1	-29.999999999999996	29.999999999999996								
	113	215	0.009578084062665682	0.07183563041051336	0.18595371591688653	500.0	600.0	625.0	0	0	1	-29.999999999999996	29.999999999999996								
	114	116	0.005183947650988695	0.0611705822095065	0.19131782096476174	500.0	600.0	625.0	0	0	1	-29.999999999999996	29.999999999999996								
	115	116	0.0020021441607823453	0.01701822536568166	0.027364335198575118	500.0	600.0	625.0	0	0	1	-29.999999999999996	29.999999999999996								
	115	121	0.0059798282840855055	0.04883526430404267	0.10369044627506688	500.0	600.0	625.0	0	0	1	-29.999999999999996	29.999999999999996								
	115	121	0.006008221654856872	0.04906714349841331	0.14692629761188652	500.0	600.0	625.0	0	0	1	-29.999999999999996	29.999999999999996								
	115	124	0.007149876274827732	0.05311336660859429	0.08831025026925253	500.0	600.0	625.0	0	0	1	-29.999999999999996	29.999999999999996								
	116	117	0.0030189802092625453	0.02616449514403265	0.03767279845389042	500.0	600.0	625.0	0	0	1	-29.999999999999996	29.999999999999996								
	116	119	0.003039344443295952	0.02330164072988149	0.23812198643759322	500.0	600.0	625.0	0	0	1	-29.999999999999996	29.999999999999996								
	117	118	0.0020061553421952907	0.014043087395013634	0.12327802709573223	500.0	600.0	625.0	0	0	1	-29.999999999999996	29.999999999999996								
	117	122	0.01421490284383818	0.10661177117526249	0.1993037644060311	500.0	600.0	625.0	0	0	1	-29.999999999999996	29.999999999999996								
	118	121	0.002960224735535897	0.02565528103779653	0.002687579398305118	500.0	600.0	625.0	0	0	1	-29.999999999999996	29.999999999999996								
	118	121	0.0030095390859004355	0.026082672074107735	0.023816815167393483	500.0	600.0	625.0	0	0	1	-29.999999999999996	29.999999999999996								
	119	120	0.004961158158130204	0.03968926525410825	0.13656691450438227	500.0	600.0	625.0	0	0	1	-29.999999999999996	29.999999999999996								
	119	120	0.005089934298380626	0.040719474375214615	0.0026879854134427422	500.0	600.0	625.0	0	0	1	-29.999999999999996	29.999999999999996								
	120	123	0.0030000020336974787	0.022000014912273515	0.038161889283426835	500.0	600.0	625.0	0	0	1	-29.999999999999996	29.999999999999996								
	120	123	0.0029857427362198707	0.021895446730793182	0.034511562168209504	500.0	600.0	625.0	0	0	1	-29.999999999999996	29.999999999999996								
	121	122	0.00918754379388334	0.06941699751249204	0.18938020848149842	500.0	600.0	625.0	0	0	1	-29.999999999999996	29.999999999999996								
	123	217	0.010120119132600839	0.07488888151458811	0.18808788325344555	500.0	600.0	625.0	0	0	1	-29.999999999999996	29.999999999999996								
	201	202	0.0029969783554249776	0.01398589899182876	0.3962952929737707	175.0	193.0	200.0	0	0	1	-29.999999999999996	29.999999999999996								
	201	203	0.05759388162681268	0.2209510726654685	0.11792532094447554	175.0	208.0	220.00000000000003	0	0	1	-29.999999999999996	29.999999999999996								
	201	205	0.02160841269217246	0.08348704901282991	0.03818299224016423	175.0	208.0	220.00000000000003	0	0	1	-29.999999999999996	29.999999999999996								
	202	204	0.032435283406962286	0.12482669667277856	0.02178061282780359	175.0	208.0	220.00000000000003	0	0	1	-29.999999999999996	29.999999999999996								
	202	206	0.05002563964024519	0.19209845596966948	0.0026876320264123525	175.0	208.0	220.00000000000003	0	0	1	-29.999999999999996	29.999999999999996								
	203	209	0.03200950514623311	0.1228751970914885	0.002687731459247844	175.0	208.0	220.00000000000003	0	0	1	-29.999999999999996	29.999999999999996								
	203	224	0.001848322427318897	0.07762953916573545	0.0026876071975874714	400.0	509.99999999999994	600.0	1.015	0.0	1	-29.999999999999996	29.999999999999996								
	204	209	0.026787306518775863	0.10318073617911203	0.029352706660911054	175.0	208.0	220.00000000000003	0	0	1	-29.999999999999996	29.999999999999996								
	205	210	0.022796285939005387	0.08722057226027796	0.0026877542379749996	175.0	208.0	220.00000000000003	0	0	1	-29.999999999999996	29.999999999999996								
	206	210	0.01395992322673269	0.06082537976183737	2.3409106203211008	175.0	193.0	200.0	0	0	1	-29.999999999999996	29.999999999999996								
	207	208	0.01601627388284458	0.06106204417308549	0.1116117283915631	175.0	208.0	220.00000000000003	0	0	1	-29.999999999999996	29.999999999999996								
	208	209	0.04159546776713327	0.15961051565037182	0.11530610333966843	175.0	208.0	220.00000000000003	0	0	1	-29.999999999999996	29.999999999999996								
	208	210	0.04528550084600384	0.1737699448747204	0.0026878318689288467	175.0	208.0	220.00000000000003	0	0	1	-29.999999999999996	29.999999999999996								
	209	211	0.0020751036451071934	0.08715434902885698	0.0026876038109590666	400.0	509.99999999999994	600.0	1.03	0.0	1	-29.999999999999996	29.999999999999996								
	209	212	0.001785315792538748	0.0749832608370354	0.002687580888662274	400.0	509.99999999999994	600.0	1.03	0.0	1	-29.999999999999996	29.999999999999996								
	210	211	0.0018627206214968071	0.07823426317752881	0.00617427493028522	400.0	509.99999999999994	600.0	1.015	0.0	1	-29.999999999999996	29.999999999999996								
	210	212	0.001857216550314092	0.07800309223033171	0.03732580719845148	400.0	509.99999999999994	600.0	1.015	0.0	1	-29.999999999999996	29.999999999999996								
	211	213	0.006231757698330723	0.04985406156931339	0.11934976020457735	500.0	600.0	625.0	0	0	1	-29.999999999999996	29.999999999999996								
	211	214	0.005081860003439429	0.04268762401352835	0.2736197301849005	500.0	600.0	625.0	0	0	1	-29.999999999999996	29.999999999999996								
	212	213	0.006031951545017694	0.048255612342715214	0.1999778251738283	500.0	600.0	625.0	0	0	1	-29.999999999999996	29.999999999999996								
	212	223	0.012442520100433702	0.10057703735179509	0.19921329393175816	500.0	600.0	625.0	0	0	1	-29.999999999999996	29.999999999999996								
	213	223	0.01079916285392747	0.08541156065533297	0.01287895165770154	500.0	600.0	625.0	0	0	1	-29.999999999999996	29.999999999999996								
	214	216	0.004897414276674869	0.0577894884038798	0.06018953261067903	500.0	600.0	625.0	0	0	1	-29.999999999999996	29.999999999999996								
	215	216	0.00200144296236664	0.017012265179152882	0.002687992961456799	500.0	600.0	625.0	0	0	1	-29.999999999999996	29.999999999999996								
	215	221	0.0060145400502048755	0.04911874372651052	0.10986958070771295	500.0	600.0	625.0	0	0	1	-29.999999999999996	29.999999999999996								
	215	221	0.005986420206986752	0.04888909834049375	0.04323795583259771	500.0	600.0	625.0	0	0	1	-29.999999999999996	29.999999999999996								
	215	224	0.006988716943396478	0.051916182999367115	0.06355603752647411	500.0	600.0	625.0	0	0	1	-29.999999999999996	29.999999999999996								
	216	217	0.0028841936401340705	0.024996344878637444	0.018704679596734053	500.0	600.0	625.0	0	0	1	-29.999999999999996	29.999999999999996								
	216	219	0.003000540890559093	0.023004146825652175	0.03023025947199312	500.0	600.0	625.0	0	0	1	-29.999999999999996	29.999999999999996								
	217	218	0.0019801455722363685	0.013861019005316865	0.09795576079876363	500.0	600.0	625.0	0	0	1	-29.999999999999996	29.999999999999996								
	217	222	0.013772783512522629	0.10329587619918132	0.18003626049051027	500.0	600.0	625.0	0	0	1	-29.999999999999996	29.999999999999996								
	218	221	0.0029880178262640705	0.025896154490677746	0.10731264679870256	500.0	600.0	625.0	0	0	1	-29.999999999999996	29.999999999999996								
	218	221	0.003006983208939244	0.02606052114045892	0.0846723763102088	500.0	600.0	625.0	0	0	1	-29.999999999999996	29.999999999999996								
	219	220	0.004984944408066933	0.03987955525337827	0.05402312154881035	500.0	600.0	625.0	0	0	1	-29.999999999999996	29.999999999999996								
	219	220	0.0049430605009983695	0.03954448399711528	0.1403856158175757	500.0	600.0	625.0	0	0	1	-29.999999999999996	29.999999999999996								
	220	223	0.0029723018657901506	0.021796880347660506	0.002687733982005303	500.0	600.0	625.0	0	0	1	-29.999999999999996	29.999999999999996								
	220	223	0.0030297368337990575	0.022218070112969435	0.0026875457087340198	500.0	600.0	625.0	0	0	1	-29.999999999999996	29.999999999999996								
	221	222	0.009001560494155703	0.06801179035911896	0.16404408065357967	500.0	600.0	625.0	0	0	1	-29.999999999999996	29.999999999999996								
	301	302	0.0030100570778668753	0.014046933029889444	0.44045606949263577	175.0	193.0	200.0	0	0	1	-29.999999999999996	29.999999999999996								
	301	303	0.05443628323104122	0.20883737707766753	0.03673677612123446	175.0	208.0	220.00000000000003	0	0	1	-29.999999999999996	29.999999999999996								
	301	305	0.021960999292153525	0.08484931542124696	0.02859351211091032	175.0	208.0	220.00000000000003	0	0	1	-29.999999999999996	29.999999999999996								
	302	304	0.03296658461863256	0.12687140133687203	0.24248816597638953	175.0	208.0	220.00000000000003	0	0	1	-29.999999999999996	29.999999999999996								
	302	306	0.05318994760829191	0.20424939847740728	0.12114909081939573	175.0	208.0	220.00000000000003	0	0	1	-29.999999999999996	29.999999999999996								
	303	309	0.030738283768592705	0.11799534729441628	0.24655645882813887	175.0	208.0	220.00000000000003	0	0	1	-29.999999999999996	29.999999999999996								
	303	324	0.0019241983034587423	0.08081632562336591	0.03698500069347736	400.0	509.99999999999994	600.0	1.015	0.0	1	-29.999999999999996	29.999999999999996								
	304	309	0.028060974058800706	0.10808671483855309	0.03149153904560039	175.0	208.0	220.00000000000003	0	0	1	-29.999999999999996	29.999999999999996								
	305	310	0.023052719029087374	0.08820170755989816	0.0026876362190365608	175.0	208.0	220.00000000000003	0	0	1	-29.999999999999996	29.999999999999996								
	306	310	0.013990321323577264	0.06095782861181079	2.4207256808470605	175.0	193.0	200.0	0	0	1	-29.999999999999996	29.999999999999996								
	307	308	0.015876447531362872	0.06052895620772178	0.002687846239398783	175.0	208.0	220.00000000000003	0	0	1	-29.999999999999996	29.999999999999996								
	308	309	0.04427916042370589	0.16990840604599472	0.028905713765139045	175.0	208.0	220.00000000000003	0	0	1	-29.999999999999996	29.999999999999996								
	308	310	0.04293321572885962	0.16474373459142996	0.0698303151460837	175.0	208.0	220.00000000000003	0	0	1	-29.999999999999996	29.999999999999996								
	309	311	0.001851860047488007	0.07777811920295412	0.0026878665071566835	400.0	509.99999999999994	600.0	1.03	0.0	1	-29.999999999999996	29.999999999999996								
	309	312	0.002266604882295984	0.09519739969073403	0.0026876296404249006	400.0	509.99999999999994	600.0	1.03	0.0	1	-29.999999999999996	29.999999999999996								
	310	311	0.001780606395468906	0.07478546604601874	0.05679840198177576	400.0	509.99999999999994	600.0	1.015	0.0	1	-29.999999999999996	29.999999999999996								
	310	312	0.0017476659635143864	0.0734019680724286	0.0026875880358022304	400.0	509.99999999999994	600.0	1.015	0.0	1	-29.999999999999996	29.999999999999996								
	311	313	0.005985520693745005	0.04788416553525486	0.11720126757437882	500.0	600.0	625.0	0	0	1	-29.999999999999996	29.999999999999996								
	311	314	0.0050624108433333665	0.04252425106865871	0.07122225666761049	500.0	600.0	625.0	0	0	1	-29.999999999999996	29.999999999999996								
	312	313	0.005980250432122336	0.04784200343924813	0.1307127668827357	500.0	600.0	625.0	0	0	1	-29.999999999999996	29.999999999999996								
	312	323	0.01196480659135108	0.09671551983103499	0.002687568650892223	500.0	600.0	625.0	0	0	1	-29.999999999999996	29.999999999999996								
	313	323	0.011080953673593505	0.08764026985783066	0.12402658119631377	500.0	600.0	625.0	0	0	1	-29.999999999999996	29.999999999999996								
	314	316	0.005133479157024704	0.06057505398121501	0.09099487290650385	500.0	600.0	625.0	0	0	1	-29.999999999999996	29.999999999999996								
	315	316	0.002005468058593142	0.01704647849706781	0.0026890364976403366	500.0	600.0	625.0	0	0	1	-29.999999999999996	29.999999999999996								
	315	321	0.005980259413797812	0.048838785196204125	0.02578619852361836	500.0	600.0	625.0	0	0	1	-29.999999999999996	29.999999999999996								
	315	321	0.005989006656334922	0.048910221010178334	0.18363489067198327	500.0	600.0	625.0	0	0	1	-29.999999999999996	29.999999999999996								
	315	324	0.007100002532800022	0.052742875950709436	0.15533576706191185	500.0	600.0	625.0	0	0	1	-29.999999999999996	29.999999999999996								
	316	317	0.003047088969874428	0.026408104402485717	0.10151251341611986	500.0	600.0	625.0	0	0	1	-29.999999999999996	29.999999999999996								
	316	319	0.0030062057581931555	0.023047577477494755	0.13623727012287085	500.0	600.0	625.0	0	0	1	-29.999999999999996	29.999999999999996								
	317	318	0.001983085901319389	0.013881601308895203	0.002687589785973433	500.0	600.0	625.0	0	0	1	-29.999999999999996	29.999999999999996								
	317	322	0.014832104951443112	0.11124078695302675	0.2176084214169696	500.0	600.0	625.0	0	0	1	-29.999999999999996	29.999999999999996								
	318	321	0.0030175094769326724	0.02615174879635868	0.06118634961931484	500.0	600.0	625.0	0	0	1	-29.999999999999996	29.999999999999996								
	318	321	0.003045943839462089	0.02639817993817233	0.20206991273694203	500.0	600.0	625.0	0	0	1	-29.999999999999996	29.999999999999996								
	319	320	0.005018811653196877	0.04015049321434543	0.0026878385479313315	500.0	600.0	625.0	0	0	1	-29.999999999999996	29.999999999999996								
	319	320	0.0049977094864995615	0.03998167588091205	0.04401484440915228	500.0	600.0	625.0	0	0	1	-29.999999999999996	29.999999999999996								
	320	323	0.0030158569871001012	0.022116284570562684	0.09357377046491787	500.0	600.0	625.0	0	0	1	-29.999999999999996	29.999999999999996								
	320	323	0.002995503645916798	0.02196702673524989	0.002687671031484201	500.0	600.0	625.0	0	0	1	-29.999999999999996	29.999999999999996								
	321	322	0.009021577499517121	0.0681630299553432	0.01952578228198738	500.0	600.0	625.0	0	0	1	-29.999999999999996	29.999999999999996								
	325	121	0.011952908886332483	0.09661934665891155	0.16932156243908658	500.0	600.0	625.0	0	0	1	-29.999999999999996	29.999999999999996								
	318	223	0.012841485089347923	0.10273188051227898	0.18280423427476666	500.0	600.0	625.0	0	0	1	-29.999999999999996	29.999999999999996								
	323	325	4.858113530316498e-6	0.008998332404124438	0.00268784702999726	722.0	893.0	893.0	0	0	1	-29.999999999999996	29.999999999999996								
];

%%-----  OPF Data  -----%%
%% cost data
%    1    startup    shutdown    n    x1    y1    ...    xn    yn
%    2    startup    shutdown    n    c(n-1)    ...    c0
mpc.gencost = [
	2	1500.0	0.0	3	0.0	130.0	400.6849
	2	1500.0	0.0	3	0.0	130.0	400.6849
	2	1500.0	0.0	3	0.014142	16.0811	212.3076
	2	1500.0	0.0	3	0.014142	16.0811	212.3076
	2	1500.0	0.0	3	0.0	130.0	400.6849
	2	1500.0	0.0	3	0.0	130.0	400.6849
	2	1500.0	0.0	3	0.014142	16.0811	212.3076
	2	1500.0	0.0	3	0.014142	16.0811	212.3076
	2	1500.0	0.0	3	0.052672	43.6615	781.521
	2	1500.0	0.0	3	0.052672	43.6615	781.521
	2	1500.0	0.0	3	0.052672	43.6615	781.521
	2	1500.0	0.0	3	0.007170000000000001	48.5804	832.7575
	2	1500.0	0.0	3	0.007170000000000001	48.5804	832.7575
	2	1500.0	0.0	3	0.007170000000000001	48.5804	832.7575
	2	1500.0	0.0	3	0.0	0.0	0.0
	2	1500.0	0.0	3	0.328412	56.564	86.3852
	2	1500.0	0.0	3	0.328412	56.564	86.3852
	2	1500.0	0.0	3	0.328412	56.564	86.3852
	2	1500.0	0.0	3	0.328412	56.564	86.3852
	2	1500.0	0.0	3	0.328412	56.564	86.3852
	2	1500.0	0.0	3	0.008342	12.3883	382.2391
	2	1500.0	0.0	3	0.008342	12.3883	382.2391
	2	1500.0	0.0	3	0.000213	4.4231	395.3749
	2	1500.0	0.0	3	0.000213	4.4231	395.3749
	2	1500.0	0.0	3	0.0	0.001	0.001
	2	1500.0	0.0	3	0.0	0.001	0.001
	2	1500.0	0.0	3	0.0	0.001	0.001
	2	1500.0	0.0	3	0.0	0.001	0.001
	2	1500.0	0.0	3	0.0	0.001	0.001
	2	1500.0	0.0	3	0.0	0.001	0.001
	2	1500.0	0.0	3	0.008342	12.3883	382.2391
	2	1500.0	0.0	3	0.008342	12.3883	382.2391
	2	1500.0	0.0	3	0.004895000000000001	11.8495	665.1094
	2	1500.0	0.0	3	0.0	130.0	400.6849
	2	1500.0	0.0	3	0.0	130.0	400.6849
	2	1500.0	0.0	3	0.014142	16.0811	212.3076
	2	1500.0	0.0	3	0.014142	16.0811	212.3076
	2	1500.0	0.0	3	0.0	130.0	400.6849
	2	1500.0	0.0	3	0.0	130.0	400.6849
	2	1500.0	0.0	3	0.014142	16.0811	212.3076
	2	1500.0	0.0	3	0.014142	16.0811	212.3076
	2	1500.0	0.0	3	0.052672	43.6615	781.521
	2	1500.0	0.0	3	0.052672	43.6615	781.521
	2	1500.0	0.0	3	0.052672	43.6615	781.521
	2	1500.0	0.0	3	0.007170000000000001	48.5804	832.7575
	2	1500.0	0.0	3	0.007170000000000001	48.5804	832.7575
	2	1500.0	0.0	3	0.007170000000000001	48.5804	832.7575
	2	1500.0	0.0	3	0.0	0.0	0.0
	2	1500.0	0.0	3	0.328412	56.564	86.3852
	2	1500.0	0.0	3	0.328412	56.564	86.3852
	2	1500.0	0.0	3	0.328412	56.564	86.3852
	2	1500.0	0.0	3	0.328412	56.564	86.3852
	2	1500.0	0.0	3	0.328412	56.564	86.3852
	2	1500.0	0.0	3	0.008342	12.3883	382.2391
	2	1500.0	0.0	3	0.008342	12.3883	382.2391
	2	1500.0	0.0	3	0.000213	4.4231	395.3749
	2	1500.0	0.0	3	0.000213	4.4231	395.3749
	2	1500.0	0.0	3	0.0	0.001	0.001
	2	1500.0	0.0	3	0.0	0.001	0.001
	2	1500.0	0.0	3	0.0	0.001	0.001
	2	1500.0	0.0	3	0.0	0.001	0.001
	2	1500.0	0.0	3	0.0	0.001	0.001
	2	1500.0	0.0	3	0.0	0.001	0.001
	2	1500.0	0.0	3	0.008342	12.3883	382.2391
	2	1500.0	0.0	3	0.008342	12.3883	382.2391
	2	1500.0	0.0	3	0.004895000000000001	11.8495	665.1094
	2	1500.0	0.0	3	0.0	130.0	400.6849
	2	1500.0	0.0	3	0.0	130.0	400.6849
	2	1500.0	0.0	3	0.014142	16.0811	212.3076
	2	1500.0	0.0	3	0.014142	16.0811	212.3076
	2	1500.0	0.0	3	0.0	130.0	400.6849
	2	1500.0	0.0	3	0.0	130.0	400.6849
	2	1500.0	0.0	3	0.014142	16.0811	212.3076
	2	1500.0	0.0	3	0.014142	16.0811	212.3076
	2	1500.0	0.0	3	0.052672	43.6615	781.521
	2	1500.0	0.0	3	0.052672	43.6615	781.521
	2	1500.0	0.0	3	0.052672	43.6615	781.521
	2	1500.0	0.0	3	0.007170000000000001	48.5804	832.7575
	2	1500.0	0.0	3	0.007170000000000001	48.5804	832.7575
	2	1500.0	0.0	3	0.007170000000000001	48.5804	832.7575
	2	1500.0	0.0	3	0.0	0.0	0.0
	2	1500.0	0.0	3	0.328412	56.564	86.3852
	2	1500.0	0.0	3	0.328412	56.564	86.3852
	2	1500.0	0.0	3	0.328412	56.564	86.3852
	2	1500.0	0.0	3	0.328412	56.564	86.3852
	2	1500.0	0.0	3	0.328412	56.564	86.3852
	2	1500.0	0.0	3	0.008342	12.3883	382.2391
	2	1500.0	0.0	3	0.008342	12.3883	382.2391
	2	1500.0	0.0	3	0.000213	4.4231	395.3749
	2	1500.0	0.0	3	0.000213	4.4231	395.3749
	2	1500.0	0.0	3	0.0	0.001	0.001
	2	1500.0	0.0	3	0.0	0.001	0.001
	2	1500.0	0.0	3	0.0	0.001	0.001
	2	1500.0	0.0	3	0.0	0.001	0.001
	2	1500.0	0.0	3	0.0	0.001	0.001
	2	1500.0	0.0	3	0.0	0.001	0.001
	2	1500.0	0.0	3	0.008342	12.3883	382.2391
	2	1500.0	0.0	3	0.008342	12.3883	382.2391
	2	1500.0	0.0	3	0.004895000000000001	11.8495	665.1094
];

